5cpr_539_1_B_403__D___
     RDKit          3D

 24 27  0  0  0  0  0  0  0  0999 V2000
   -3.8740  -14.3640   24.4410 C   0  0  0  0  0  0  0  0  0  0  0  0
   -3.6600  -15.4610   25.2720 C   0  0  0  0  0  0  0  0  0  0  0  0
   -3.3670  -16.6960   24.7300 C   0  0  0  0  0  0  0  0  0  0  0  0
   -3.0960  -17.7140   25.6300 C   0  0  0  0  0  0  0  0  0  0  0  0
   -1.9360  -19.3900   24.1740 C   0  0  0  0  0  0  0  0  0  0  0  0
   -1.8670  -21.7300   24.7460 N   0  0  0  0  0  0  0  0  0  0  0  0
   -2.5880  -21.4020   25.8280 C   0  0  0  0  0  0  0  0  0  0  0  0
   -3.6780  -15.3670   26.6540 C   0  0  0  0  0  0  0  0  0  0  0  0
   -2.8570  -12.9240   28.9650 C   0  0  0  0  0  0  0  0  0  0  0  0
   -3.6500  -11.6560   29.1320 C   0  0  0  0  0  0  0  0  0  0  0  0
   -5.1080  -12.0220   29.1740 C   0  0  0  0  0  0  0  0  0  0  0  0
   -3.3570  -16.8440   23.3470 C   0  0  0  0  0  0  0  0  0  0  0  0
   -3.0050  -20.1210   26.1440 C   0  0  0  0  0  0  0  0  0  0  0  0
   -1.5750  -20.7020   23.9360 C   0  0  0  0  0  0  0  0  0  0  0  0
   -2.6800  -19.0720   25.2960 C   0  0  0  0  0  0  0  0  0  0  0  0
   -3.6210  -15.7780   22.5090 C   0  0  0  0  0  0  0  0  0  0  0  0
   -3.8480  -14.5340   23.0660 C   0  0  0  0  0  0  0  0  0  0  0  0
   -5.1940  -13.5320   29.0930 C   0  0  0  0  0  0  0  0  0  0  0  0
   -3.8400  -14.0270   28.6330 C   0  0  1  0  0  0  0  0  0  0  0  0
   -3.1860  -17.5480   26.9600 N   0  0  0  0  0  0  0  0  0  0  0  0
   -3.4560  -16.4210   27.4570 N   0  0  0  0  0  0  0  0  0  0  0  0
   -3.9310  -14.0980   27.1880 N   0  0  0  0  0  0  0  0  0  0  0  0
   -3.6570  -16.0530   20.7930 Cl  0  0  0  0  0  0  0  0  0  0  0  0
   -4.1190  -13.1830   22.0420 Cl  0  0  0  0  0  0  0  0  0  0  0  0
  1  2  2  0
  2  8  1  0
  3  2  1  0
  3  4  1  0
  4 20  2  0
  5 15  1  0
  6  7  2  0
  7 13  1  0
  8 22  1  0
  8 21  2  0
  9 10  1  0
 10 11  1  0
 12  3  2  0
 14  5  2  0
 14  6  1  0
 15  4  1  0
 15 13  2  0
 16 17  2  0
 16 12  1  0
 17  1  1  0
 18 11  1  0
 19  9  1  0
 19 18  1  0
 20 21  1  0
 19 22  1  6
 23 16  1  0
 24 17  1  0
M  END
$$$$
